FoamFile { format ascii; class dictionary; object decomposeParDict; }
numberOfSubdomains 8;          // VM の割当コアに合わせる
method          scotch;
// ************************************************************************* //
