FoamFile { format ascii; class dictionary; object surfaceFeaturesDict; }
surfaces ("airfoil.stl");
includedAngle 150;
// ************************************************************************* //
